umask 0022


MODID=nethunter_modules
AUTOMOUNT=true

LATESTARTSERVICE=true


print_modname() {
  ui_print "*******************************"
  ui_print "Wireless adapter modules loader"
  ui_print "*******************************"
  sleep 2
}

REPLACE="
"

set_permissions() {
  set_perm_recursive  $MODPATH  0  0  0755  0644
}

start_process(){
  ui_print "Copying files..."
  mkdir /data/adb/modules/KernelModules
  cp -r system /data/adb/modules/KernelModules/
  cp module.prop /data/adb/modules/KernelModules/
  cp service.sh /data/adb/modules/KernelModules/
  ui_print "Done! Reboot to apply changes"
  ui_print "Happy hacking :D"
}


mount /data 2>/dev/null

source "/data/adb/magisk/util_functions.sh"


ZIP=$3
TMPDIR=/dev/tmp

mkdir -p $TMPDIR
cd $TMPDIR

ui_print "Extracting files. Please, wait..."

unzip "$ZIP"

if [ ! -f "service.sh" ]; then
  ui_print "! Failed: Unable to extract zip file!"
  exit 1
fi


print_modname
set_permissions
start_process

exit 0